10
Minimum energy structure for 10 particles with the KA potential.
A        0.7468626100        1.5210813064       -2.6643750231
A        1.7746746406        1.4094796140       -3.0371123213
A        2.1901514973        0.7689591093       -2.1996072519
A        1.1059783382        1.9940383744       -1.7650843390
A        2.1454726817        1.8976864409       -2.1084577967
A        1.4562192819        1.0278609646       -1.3757785883
A        1.0853251738        0.5394615766       -2.3042956385
B        0.6701100788        1.1936810309       -1.8157921683
B        1.4973100816        1.3109769033       -2.2078802036
B        1.4179583133        2.1374903361       -2.6107755700