10
Minimum energy structure for 10 particles with the Wahnstrom potential.
A         1.2508493672       -0.1468563491       -1.1368039482
A         1.3640729185        0.9948089393        0.3308491548
A         1.7577714572        0.7885323110       -0.7212801266
A         0.6344954404        0.7969739455       -0.9279559539
A         1.2059036322       -0.7393042443       -0.1613331667
A         0.2662783995       -0.2223861802       -0.5543469554
A         0.9959218601       -0.0245670049        0.7044748371
A         1.9804139638        0.0509675533        0.1219173550
A         0.2822410311        0.6752645803        0.1517351373
B         1.0819854236        0.2414916231       -0.2436328391