11
Minimum energy structure for 11 particles with the Wahnstrom potential.
A        -0.3961748423       -0.7226033260        0.1630808458
A         0.6280467152       -1.1787100714       -0.1370560800
A         0.0656761035       -0.5182462305       -0.8279204620
A        -0.0580984623        0.0970769709        0.8645924740
A        -0.3180419104        0.3487136999       -0.2153042209
A         1.0923180209       -0.0536388528        0.8255233413
A         1.3970334936       -0.3522078660       -0.2233637936
A         0.6001680082        0.7779720411        0.2814472965
A         0.7058679249        0.3724765585       -0.7363898386
B         0.4596736518       -0.2083027715        0.0607603822
B         0.4135345022       -0.8048376195        0.7801351778