12
Minimum energy structure for Morse potential up to rho = 2.63. This structure minimised at rho = 2.5: http://doye.chem.ox.ac.uk/jon/structures/Morse/points/12A
A   0.444014149073435   0.745539570960899  -0.302134205255181
A  -0.511398075472577  -0.428053949368059  -0.478275405671930
A   0.944290030526235  -0.019765159850485  -0.109396251595967
A  -0.530648248889672   0.002515837893897   0.552298305066863
A  -0.490847126016090   0.467484736413016  -0.462621828822125
A   0.479608784276425  -0.469919140663843   0.615772726048105
A   0.272938398018068   0.008596162016460  -0.850552573620604
A   0.500159733732912   0.425619545117231   0.631426302897911
A   0.078632815358136  -0.001816247110658   0.000235685296554
A  -0.279463498887149  -0.824792008737480   0.293112988301360
A   0.409599673709225  -0.754123211275234  -0.328347574909952
A  -0.241581292159771   0.825982409201363   0.321967715208396