12
Minimum energy structure for 12 particles with the KA potential.
A        -0.7754384076        0.3143000757        0.2886497290
A         0.1074975148        0.2326087045        0.9739816246
A        -0.2256709403       -1.0850094441       -0.0690359966
A        -0.6049698847       -0.6222631471        0.8414206174
A         0.6393997958       -0.4306112358       -0.3136915886
A         0.4909395160       -0.7565485192        0.7186358152
A         0.2515915799        0.5582998951       -0.0574444222
A        -0.3946703717       -0.1565381077       -0.6170462408
B         0.8070276756        0.0428047966        0.4366683828
B        -0.9350661462       -0.5278362134        0.0071145877
B        -0.0660314753       -0.2414322088        0.2243691614
B        -0.7614758140        0.1903118449        1.1703596660