8
Minimum energy structure for 8 particles with the KA potential.
A        3.5175489858       -1.7542408131        1.7561668134
A        3.5903887397       -2.5878744278        2.5364985142
A        4.6362866439       -2.3452180759        2.9320377866
A        3.8355657835       -1.5337702049        2.8330540258
A        2.9850664767       -2.0831742160        3.3660723573
B        3.8489768351       -2.2742785778        3.3310446093
B        4.2195928315       -2.0452372517        2.2106155102
B        3.0703727731       -1.8629308825        2.5126729610