9
Minimum energy structure for 9 particles with the KA potential.
A        -0.6728171188       -0.6689378330        2.1201783004
A         0.5604606280       -0.0870179156        1.0194219697
A        -0.2245378017       -1.3662865811        1.4036130970
A        -0.4557341789       -0.4834095427        0.7971091192
A         0.3433560591       -0.2724574768        2.3424488997
A         0.7591967827       -0.9825369164        1.6188223354
B         0.0994243398       -1.1417202115        2.2205291188
B        -0.0114455037       -0.4881221367        1.5616869920
B         0.3290111990       -0.9455542428        0.8211420089